 
    CNRS - NERC - Met OFFICE - MERCATOR-ocean - CMCC
                        NEMO team
             Ocean General Circulation Model
                 NEMO version 5.0  (2024) 
 
            ._      ._      ._      ._      ._    
        _.-._)`\_.-._)`\_.-._)`\_.-._)`\_.-._)`\_ 
 
            o         _,           _,             
             o      .' (        .-' /             
            o     _/..._'.    .'   /              
       (    o .-'`      ` '-./  _.'               
        )    ( o)           ;= <_         (       
       (      '-.,\\__ __.-;`\   '.        )      
        )  )       \) |`\ \)  '.   \      (   (   
       (  (           \_/       '-._\      )   )  
        )  ) jgs                     `    (   (   
      ^^^^^^^^^^^^^^^^^^^^^^^^^^^^^^^^^^^^^^^^^^^ 
 

AAAAAAAA

 
 par_kind : wp = Working precision = dp = double-precision
 ~~~~~~~~                                 ****************
 
    
 usr_def_nam  : read the user defined namelist (namusr_def) in namelist_cfg
 ~~~~~~~~~~~ 
    Namelist namusr_def : BENCH test case
       global domain size-x            nn_isize =          360
       global domain size-y            nn_jsize =          331
       global domain size-z            nn_ksize =           75
    
    Namelist nammpp
       processor grid extent in i                            jpni =           40
       processor grid extent in j                            jpnj =           22
       avoid use of mpi_allgather at the north fold  ln_nnogather =  T
       halo width (applies to both rows and columns)       nn_hls =            2
       choice of communication method                     nn_comm =            1
       use delayed global communications?             ln_mppdelay =  T
 
 mpp_init:
 ~~~~~~~~ 
   The chosen domain decomposition   40 x   22 with       0 land subdomains
      - uses a total of  880 mpi process
      - has mpi subdomains with a maximum size of (jpi =   13, jpj =   20, jpi*jpj =     260)
   The best domain decompostion   36 x   24 with       0 land subdomains
      - uses a total of  864 mpi process
      - has mpi subdomains with a maximum size of (jpi =   14, jpj =   18, jpi*jpj =     252)
 
  ===>>> : W A R N I N G
 
          ===============
 
 
     ==> You could therefore have smaller mpi subdomains with less mpi processes
 
     ---   YOU ARE WASTING CPU...   ---
 
 
 
   Number of mpi processes:   880
   Number of ocean subdomains =   880
   Number of suppressed land subdomains =     0
 
 
 MPI Message Passing MPI - domain lay out over processors
 
    defines mpp subdomains
       jpni =           40
       jpnj =           22
      jpnij =          880
      nimpp =            1
      njmpp =            1
 
       sum ijpi(i,1) =          520  jpiglo =          364
       sum ijpj(1,j) =          419  jpjglo =          335
 
  Note: Partial print of the layout of the MPI domain decomposition
        --> See laytout.nc for the complete description of the 
 
       ***********************************************************************
       *             *             *             *             *             *
    22 *   13 x    7 *   13 x    7 *   13 x    7 *   13 x    7 *   13 x    7 *
       *       840   *       841   *       842   *       843   *       844   *
       *             *             *             *             *             *
       ***********************************************************************
       *             *             *             *             *             *
    21 *   13 x   19 *   13 x   19 *   13 x   19 *   13 x   19 *   13 x   19 *
       *       800   *       801   *       802   *       803   *       804   *
       *             *             *             *             *             *
       ***********************************************************************
       *             *             *             *             *             *
    20 *   13 x   19 *   13 x   19 *   13 x   19 *   13 x   19 *   13 x   19 *
       *       760   *       761   *       762   *       763   *       764   *
       *             *             *             *             *             *
       ***********************************************************************
       *             *             *             *             *             *
    19 *   13 x   19 *   13 x   19 *   13 x   19 *   13 x   19 *   13 x   19 *
       *       720   *       721   *       722   *       723   *       724   *
       *             *             *             *             *             *
       ***********************************************************************
       *             *             *             *             *             *
    18 *   13 x   19 *   13 x   19 *   13 x   19 *   13 x   19 *   13 x   19 *
       *       680   *       681   *       682   *       683   *       684   *
       *             *             *             *             *             *
       ***********************************************************************
       *             *             *             *             *             *
    17 *   13 x   19 *   13 x   19 *   13 x   19 *   13 x   19 *   13 x   19 *
       *       640   *       641   *       642   *       643   *       644   *
       *             *             *             *             *             *
       ***********************************************************************
       *             *             *             *             *             *
    16 *   13 x   19 *   13 x   19 *   13 x   19 *   13 x   19 *   13 x   19 *
       *       600   *       601   *       602   *       603   *       604   *
       *             *             *             *             *             *
       ***********************************************************************
       *             *             *             *             *             *
    15 *   13 x   19 *   13 x   19 *   13 x   19 *   13 x   19 *   13 x   19 *
       *       560   *       561   *       562   *       563   *       564   *
       *             *             *             *             *             *
       ***********************************************************************
       *             *             *             *             *             *
    14 *   13 x   19 *   13 x   19 *   13 x   19 *   13 x   19 *   13 x   19 *
       *       520   *       521   *       522   *       523   *       524   *
       *             *             *             *             *             *
       ***********************************************************************
       *             *             *             *             *             *
    13 *   13 x   20 *   13 x   20 *   13 x   20 *   13 x   20 *   13 x   20 *
       *       480   *       481   *       482   *       483   *       484   *
       *             *             *             *             *             *
       ***********************************************************************
 
       ...
 
       ***********************************************************************
       *             *             *             *             *             *
    10 *   13 x   20 *   13 x   20 *   13 x   20 *   13 x   20 *   13 x   20 *
       *       360   *       361   *       362   *       363   *       364   *
       *             *             *             *             *             *
       ***********************************************************************
       *             *             *             *             *             *
     9 *   13 x   20 *   13 x   20 *   13 x   20 *   13 x   20 *   13 x   20 *
       *       320   *       321   *       322   *       323   *       324   *
       *             *             *             *             *             *
       ***********************************************************************
       *             *             *             *             *             *
     8 *   13 x   20 *   13 x   20 *   13 x   20 *   13 x   20 *   13 x   20 *
       *       280   *       281   *       282   *       283   *       284   *
       *             *             *             *             *             *
       ***********************************************************************
       *             *             *             *             *             *
     7 *   13 x   20 *   13 x   20 *   13 x   20 *   13 x   20 *   13 x   20 *
       *       240   *       241   *       242   *       243   *       244   *
       *             *             *             *             *             *
       ***********************************************************************
       *             *             *             *             *             *
     6 *   13 x   20 *   13 x   20 *   13 x   20 *   13 x   20 *   13 x   20 *
       *       200   *       201   *       202   *       203   *       204   *
       *             *             *             *             *             *
       ***********************************************************************
       *             *             *             *             *             *
     5 *   13 x   20 *   13 x   20 *   13 x   20 *   13 x   20 *   13 x   20 *
       *       160   *       161   *       162   *       163   *       164   *
       *             *             *             *             *             *
       ***********************************************************************
       *             *             *             *             *             *
     4 *   13 x   20 *   13 x   20 *   13 x   20 *   13 x   20 *   13 x   20 *
       *       120   *       121   *       122   *       123   *       124   *
       *             *             *             *             *             *
       ***********************************************************************
       *             *             *             *             *             *
     3 *   13 x   20 *   13 x   20 *   13 x   20 *   13 x   20 *   13 x   20 *
       *        80   *        81   *        82   *        83   *        84   *
       *             *             *             *             *             *
       ***********************************************************************
       *             *             *             *             *             *
     2 *   13 x   20 *   13 x   20 *   13 x   20 *   13 x   20 *   13 x   20 *
       *        40   *        41   *        42   *        43   *        44   *
       *             *             *             *             *             *
       ***********************************************************************
       *             *             *             *             *             *
     1 *   13 x   20 *   13 x   20 *   13 x   20 *   13 x   20 *   13 x   20 *
       *         0   *         1   *         2   *         3   *         4   *
       *             *             *             *             *             *
       ***********************************************************************
                1             2             3             4             5
 
       ***********************************************************************
       *             *             *             *             *             *
    22 *   13 x    7 *   13 x    7 *   13 x    7 *   13 x    7 *   13 x    7 *
       *       845   *       846   *       847   *       848   *       849   *
       *             *             *             *             *             *
       ***********************************************************************
       *             *             *             *             *             *
    21 *   13 x   19 *   13 x   19 *   13 x   19 *   13 x   19 *   13 x   19 *
       *       805   *       806   *       807   *       808   *       809   *
       *             *             *             *             *             *
       ***********************************************************************
       *             *             *             *             *             *
    20 *   13 x   19 *   13 x   19 *   13 x   19 *   13 x   19 *   13 x   19 *
       *       765   *       766   *       767   *       768   *       769   *
       *             *             *             *             *             *
       ***********************************************************************
       *             *             *             *             *             *
    19 *   13 x   19 *   13 x   19 *   13 x   19 *   13 x   19 *   13 x   19 *
       *       725   *       726   *       727   *       728   *       729   *
       *             *             *             *             *             *
       ***********************************************************************
       *             *             *             *             *             *
    18 *   13 x   19 *   13 x   19 *   13 x   19 *   13 x   19 *   13 x   19 *
       *       685   *       686   *       687   *       688   *       689   *
       *             *             *             *             *             *
       ***********************************************************************
       *             *             *             *             *             *
    17 *   13 x   19 *   13 x   19 *   13 x   19 *   13 x   19 *   13 x   19 *
       *       645   *       646   *       647   *       648   *       649   *
       *             *             *             *             *             *
       ***********************************************************************
       *             *             *             *             *             *
    16 *   13 x   19 *   13 x   19 *   13 x   19 *   13 x   19 *   13 x   19 *
       *       605   *       606   *       607   *       608   *       609   *
       *             *             *             *             *             *
       ***********************************************************************
       *             *             *             *             *             *
    15 *   13 x   19 *   13 x   19 *   13 x   19 *   13 x   19 *   13 x   19 *
       *       565   *       566   *       567   *       568   *       569   *
       *             *             *             *             *             *
       ***********************************************************************
       *             *             *             *             *             *
    14 *   13 x   19 *   13 x   19 *   13 x   19 *   13 x   19 *   13 x   19 *
       *       525   *       526   *       527   *       528   *       529   *
       *             *             *             *             *             *
       ***********************************************************************
       *             *             *             *             *             *
    13 *   13 x   20 *   13 x   20 *   13 x   20 *   13 x   20 *   13 x   20 *
       *       485   *       486   *       487   *       488   *       489   *
       *             *             *             *             *             *
       ***********************************************************************
 
       ...
 
       ***********************************************************************
       *             *             *             *             *             *
    10 *   13 x   20 *   13 x   20 *   13 x   20 *   13 x   20 *   13 x   20 *
       *       365   *       366   *       367   *       368   *       369   *
       *             *             *             *             *             *
       ***********************************************************************
       *             *             *             *             *             *
     9 *   13 x   20 *   13 x   20 *   13 x   20 *   13 x   20 *   13 x   20 *
       *       325   *       326   *       327   *       328   *       329   *
       *             *             *             *             *             *
       ***********************************************************************
       *             *             *             *             *             *
     8 *   13 x   20 *   13 x   20 *   13 x   20 *   13 x   20 *   13 x   20 *
       *       285   *       286   *       287   *       288   *       289   *
       *             *             *             *             *             *
       ***********************************************************************
       *             *             *             *             *             *
     7 *   13 x   20 *   13 x   20 *   13 x   20 *   13 x   20 *   13 x   20 *
       *       245   *       246   *       247   *       248   *       249   *
       *             *             *             *             *             *
       ***********************************************************************
       *             *             *             *             *             *
     6 *   13 x   20 *   13 x   20 *   13 x   20 *   13 x   20 *   13 x   20 *
       *       205   *       206   *       207   *       208   *       209   *
       *             *             *             *             *             *
       ***********************************************************************
       *             *             *             *             *             *
     5 *   13 x   20 *   13 x   20 *   13 x   20 *   13 x   20 *   13 x   20 *
       *       165   *       166   *       167   *       168   *       169   *
       *             *             *             *             *             *
       ***********************************************************************
       *             *             *             *             *             *
     4 *   13 x   20 *   13 x   20 *   13 x   20 *   13 x   20 *   13 x   20 *
       *       125   *       126   *       127   *       128   *       129   *
       *             *             *             *             *             *
       ***********************************************************************
       *             *             *             *             *             *
     3 *   13 x   20 *   13 x   20 *   13 x   20 *   13 x   20 *   13 x   20 *
       *        85   *        86   *        87   *        88   *        89   *
       *             *             *             *             *             *
       ***********************************************************************
       *             *             *             *             *             *
     2 *   13 x   20 *   13 x   20 *   13 x   20 *   13 x   20 *   13 x   20 *
       *        45   *        46   *        47   *        48   *        49   *
       *             *             *             *             *             *
       ***********************************************************************
       *             *             *             *             *             *
     1 *   13 x   20 *   13 x   20 *   13 x   20 *   13 x   20 *   13 x   20 *
       *         5   *         6   *         7   *         8   *         9   *
       *             *             *             *             *             *
       ***********************************************************************
                6             7             8             9            10
 
 ...
 
 
       ***********************************************************************
       *             *             *             *             *             *
    22 *   13 x    7 *   13 x    7 *   13 x    7 *   13 x    7 *   13 x    7 *
       *       870   *       871   *       872   *       873   *       874   *
       *             *             *             *             *             *
       ***********************************************************************
       *             *             *             *             *             *
    21 *   13 x   19 *   13 x   19 *   13 x   19 *   13 x   19 *   13 x   19 *
       *       830   *       831   *       832   *       833   *       834   *
       *             *             *             *             *             *
       ***********************************************************************
       *             *             *             *             *             *
    20 *   13 x   19 *   13 x   19 *   13 x   19 *   13 x   19 *   13 x   19 *
       *       790   *       791   *       792   *       793   *       794   *
       *             *             *             *             *             *
       ***********************************************************************
       *             *             *             *             *             *
    19 *   13 x   19 *   13 x   19 *   13 x   19 *   13 x   19 *   13 x   19 *
       *       750   *       751   *       752   *       753   *       754   *
       *             *             *             *             *             *
       ***********************************************************************
       *             *             *             *             *             *
    18 *   13 x   19 *   13 x   19 *   13 x   19 *   13 x   19 *   13 x   19 *
       *       710   *       711   *       712   *       713   *       714   *
       *             *             *             *             *             *
       ***********************************************************************
       *             *             *             *             *             *
    17 *   13 x   19 *   13 x   19 *   13 x   19 *   13 x   19 *   13 x   19 *
       *       670   *       671   *       672   *       673   *       674   *
       *             *             *             *             *             *
       ***********************************************************************
       *             *             *             *             *             *
    16 *   13 x   19 *   13 x   19 *   13 x   19 *   13 x   19 *   13 x   19 *
       *       630   *       631   *       632   *       633   *       634   *
       *             *             *             *             *             *
       ***********************************************************************
       *             *             *             *             *             *
    15 *   13 x   19 *   13 x   19 *   13 x   19 *   13 x   19 *   13 x   19 *
       *       590   *       591   *       592   *       593   *       594   *
       *             *             *             *             *             *
       ***********************************************************************
       *             *             *             *             *             *
    14 *   13 x   19 *   13 x   19 *   13 x   19 *   13 x   19 *   13 x   19 *
       *       550   *       551   *       552   *       553   *       554   *
       *             *             *             *             *             *
       ***********************************************************************
       *             *             *             *             *             *
    13 *   13 x   20 *   13 x   20 *   13 x   20 *   13 x   20 *   13 x   20 *
       *       510   *       511   *       512   *       513   *       514   *
       *             *             *             *             *             *
       ***********************************************************************
 
       ...
 
       ***********************************************************************
       *             *             *             *             *             *
    10 *   13 x   20 *   13 x   20 *   13 x   20 *   13 x   20 *   13 x   20 *
       *       390   *       391   *       392   *       393   *       394   *
       *             *             *             *             *             *
       ***********************************************************************
       *             *             *             *             *             *
     9 *   13 x   20 *   13 x   20 *   13 x   20 *   13 x   20 *   13 x   20 *
       *       350   *       351   *       352   *       353   *       354   *
       *             *             *             *             *             *
       ***********************************************************************
       *             *             *             *             *             *
     8 *   13 x   20 *   13 x   20 *   13 x   20 *   13 x   20 *   13 x   20 *
       *       310   *       311   *       312   *       313   *       314   *
       *             *             *             *             *             *
       ***********************************************************************
       *             *             *             *             *             *
     7 *   13 x   20 *   13 x   20 *   13 x   20 *   13 x   20 *   13 x   20 *
       *       270   *       271   *       272   *       273   *       274   *
       *             *             *             *             *             *
       ***********************************************************************
       *             *             *             *             *             *
     6 *   13 x   20 *   13 x   20 *   13 x   20 *   13 x   20 *   13 x   20 *
       *       230   *       231   *       232   *       233   *       234   *
       *             *             *             *             *             *
       ***********************************************************************
       *             *             *             *             *             *
     5 *   13 x   20 *   13 x   20 *   13 x   20 *   13 x   20 *   13 x   20 *
       *       190   *       191   *       192   *       193   *       194   *
       *             *             *             *             *             *
       ***********************************************************************
       *             *             *             *             *             *
     4 *   13 x   20 *   13 x   20 *   13 x   20 *   13 x   20 *   13 x   20 *
       *       150   *       151   *       152   *       153   *       154   *
       *             *             *             *             *             *
       ***********************************************************************
       *             *             *             *             *             *
     3 *   13 x   20 *   13 x   20 *   13 x   20 *   13 x   20 *   13 x   20 *
       *       110   *       111   *       112   *       113   *       114   *
       *             *             *             *             *             *
       ***********************************************************************
       *             *             *             *             *             *
     2 *   13 x   20 *   13 x   20 *   13 x   20 *   13 x   20 *   13 x   20 *
       *        70   *        71   *        72   *        73   *        74   *
       *             *             *             *             *             *
       ***********************************************************************
       *             *             *             *             *             *
     1 *   13 x   20 *   13 x   20 *   13 x   20 *   13 x   20 *   13 x   20 *
       *        30   *        31   *        32   *        33   *        34   *
       *             *             *             *             *             *
       ***********************************************************************
               31            32            33            34            35
 
       ***********************************************************************
       *             *             *             *             *             *
    22 *   13 x    7 *   13 x    7 *   13 x    7 *   13 x    7 *   13 x    7 *
       *       875   *       876   *       877   *       878   *       879   *
       *             *             *             *             *             *
       ***********************************************************************
       *             *             *             *             *             *
    21 *   13 x   19 *   13 x   19 *   13 x   19 *   13 x   19 *   13 x   19 *
       *       835   *       836   *       837   *       838   *       839   *
       *             *             *             *             *             *
       ***********************************************************************
       *             *             *             *             *             *
    20 *   13 x   19 *   13 x   19 *   13 x   19 *   13 x   19 *   13 x   19 *
       *       795   *       796   *       797   *       798   *       799   *
       *             *             *             *             *             *
       ***********************************************************************
       *             *             *             *             *             *
    19 *   13 x   19 *   13 x   19 *   13 x   19 *   13 x   19 *   13 x   19 *
       *       755   *       756   *       757   *       758   *       759   *
       *             *             *             *             *             *
       ***********************************************************************
       *             *             *             *             *             *
    18 *   13 x   19 *   13 x   19 *   13 x   19 *   13 x   19 *   13 x   19 *
       *       715   *       716   *       717   *       718   *       719   *
       *             *             *             *             *             *
       ***********************************************************************
       *             *             *             *             *             *
    17 *   13 x   19 *   13 x   19 *   13 x   19 *   13 x   19 *   13 x   19 *
       *       675   *       676   *       677   *       678   *       679   *
       *             *             *             *             *             *
       ***********************************************************************
       *             *             *             *             *             *
    16 *   13 x   19 *   13 x   19 *   13 x   19 *   13 x   19 *   13 x   19 *
       *       635   *       636   *       637   *       638   *       639   *
       *             *             *             *             *             *
       ***********************************************************************
       *             *             *             *             *             *
    15 *   13 x   19 *   13 x   19 *   13 x   19 *   13 x   19 *   13 x   19 *
       *       595   *       596   *       597   *       598   *       599   *
       *             *             *             *             *             *
       ***********************************************************************
       *             *             *             *             *             *
    14 *   13 x   19 *   13 x   19 *   13 x   19 *   13 x   19 *   13 x   19 *
       *       555   *       556   *       557   *       558   *       559   *
       *             *             *             *             *             *
       ***********************************************************************
       *             *             *             *             *             *
    13 *   13 x   20 *   13 x   20 *   13 x   20 *   13 x   20 *   13 x   20 *
       *       515   *       516   *       517   *       518   *       519   *
       *             *             *             *             *             *
       ***********************************************************************
 
       ...
 
       ***********************************************************************
       *             *             *             *             *             *
    10 *   13 x   20 *   13 x   20 *   13 x   20 *   13 x   20 *   13 x   20 *
       *       395   *       396   *       397   *       398   *       399   *
       *             *             *             *             *             *
       ***********************************************************************
       *             *             *             *             *             *
     9 *   13 x   20 *   13 x   20 *   13 x   20 *   13 x   20 *   13 x   20 *
       *       355   *       356   *       357   *       358   *       359   *
       *             *             *             *             *             *
       ***********************************************************************
       *             *             *             *             *             *
     8 *   13 x   20 *   13 x   20 *   13 x   20 *   13 x   20 *   13 x   20 *
       *       315   *       316   *       317   *       318   *       319   *
       *             *             *             *             *             *
       ***********************************************************************
       *             *             *             *             *             *
     7 *   13 x   20 *   13 x   20 *   13 x   20 *   13 x   20 *   13 x   20 *
       *       275   *       276   *       277   *       278   *       279   *
       *             *             *             *             *             *
       ***********************************************************************
       *             *             *             *             *             *
     6 *   13 x   20 *   13 x   20 *   13 x   20 *   13 x   20 *   13 x   20 *
       *       235   *       236   *       237   *       238   *       239   *
       *             *             *             *             *             *
       ***********************************************************************
       *             *             *             *             *             *
     5 *   13 x   20 *   13 x   20 *   13 x   20 *   13 x   20 *   13 x   20 *
       *       195   *       196   *       197   *       198   *       199   *
       *             *             *             *             *             *
       ***********************************************************************
       *             *             *             *             *             *
     4 *   13 x   20 *   13 x   20 *   13 x   20 *   13 x   20 *   13 x   20 *
       *       155   *       156   *       157   *       158   *       159   *
       *             *             *             *             *             *
       ***********************************************************************
       *             *             *             *             *             *
     3 *   13 x   20 *   13 x   20 *   13 x   20 *   13 x   20 *   13 x   20 *
       *       115   *       116   *       117   *       118   *       119   *
       *             *             *             *             *             *
       ***********************************************************************
       *             *             *             *             *             *
     2 *   13 x   20 *   13 x   20 *   13 x   20 *   13 x   20 *   13 x   20 *
       *        75   *        76   *        77   *        78   *        79   *
       *             *             *             *             *             *
       ***********************************************************************
       *             *             *             *             *             *
     1 *   13 x   20 *   13 x   20 *   13 x   20 *   13 x   20 *   13 x   20 *
       *        35   *        36   *        37   *        38   *        39   *
       *             *             *             *             *             *
       ***********************************************************************
               36            37            38            39            40
 
    resulting internal parameters : 
       narea =            1
       mpi nei  west =           39    mpi nei  east =            1
       mpi nei south =           -1    mpi nei north =           40
       mpi nei so-we =           -1    mpi nei so-ea =           -1
       mpi nei no-we =           79    mpi nei no-ea =           41
 
    ==>>>   North fold boundary prepared for jpni >1
 
 mpp init_ioipsl :   iloc  =            9          16
 ~~~~~~~~~~~~~~~     iabsf =            1           1
                     ihals =            0           0
                     ihale =            0           0
 
 nemo_ctl: Control prints
 ~~~~~~~~
    Namelist namctl
                               sn_cfctl%l_runstat =  F
                               sn_cfctl%l_trcstat =  F
                               sn_cfctl%l_obsstat =  F
                               sn_cfctl%l_oceout  =  F
                               sn_cfctl%l_layout  =  F
                               sn_cfctl%l_prtctl  =  F
                               sn_cfctl%l_prttrc  =  F
                               sn_cfctl%l_oasout  =  F
                               sn_cfctl%procmin   =            0
                               sn_cfctl%procmax   =      1000000
                               sn_cfctl%procincr  =            1
                               sn_cfctl%ptimincr  =            1
       timing by routine               ln_timing  =  T
       CFL diagnostics                 ln_diacfl  =  F
 
    Namelist namcfg
       read domain configuration file                ln_read_cfg      =  F
          filename to be read                           cn_domcfg     = 
 domain_cfg
          keep closed seas in the domain (if exist)     ln_closea     =  F
       create a configuration definition file        ln_write_cfg     =  F
          filename to be written                        cn_domcfg_out = 
 domain_cfg_out
 
 phy_cst : initialization of ocean parameters and constants
 ~~~~~~~
       mathematical constant                 rpi =    3.14159265358979     
       day                                rday   =    86400.0000000000       s
       sideral year                       rsiyea =    31558149.0101107       s
       sideral day                        rsiday =    86164.0996559118       s
       omega                              omega  =   7.292115083046062E-005  s^-
 1
 
       nb of months per year               raamo =    12.0000000000000      
  months
       nb of hours per day                 rjjhh =    24.0000000000000      
  hours
       nb of minutes per hour              rhhmm =    60.0000000000000       mn
       nb of seconds per minute            rmmss =    60.0000000000000       s
 
       earth radius                         ra   =    6371229.00000000       m
       gravity                              grav =    9.80665000000000      
  m/s^2
 
       freezing point of water              rt0  =    273.150000000000       K
 
    reference density and heat capacity now defined in eosbn2.f90
 
       thermal conductivity of pure ice          =    2.03439600000000      
  J/s/m/K
       thermal conductivity of snow is defined in a namelist 
       fresh ice specific heat                   =    2096.70000000000      
  J/kg/K
       latent heat of fusion of fresh ice / snow =    333360.100000000       J/k
 g
       latent heat of subl.  of fresh ice / snow =    2834400.00000000       J/k
 g
       density of sea ice                        =    917.000000000000      
  kg/m^3
       density of snow                           =    330.000000000000      
  kg/m^3
       density of freshwater (in melt ponds)     =    1000.00000000000      
  kg/m^3
       salinity of ice (for pisces)              =    6.00000000000000       psu
       salinity of sea (for pisces and isf)      =    34.7000000000000       psu
       latent heat of evaporation (water)        =    2500000.00000000      
  J/m^3
       von Karman constant                       =   0.400000000000000     
       Stefan-Boltzmann constant                 =   5.670000000000000E-008 
  J/s/m^2/K^4
 
       conversion: degre ==> radian          rad =   1.745329251994330E-002
 
       smallest real computer value       rsmall =   1.110223024625157E-016
 
 eos_init : equation of state
 ~~~~~~~~
    Namelist nameos : Chosen the Equation Of Seawater (EOS)
       TEOS-10 : rho=F(Conservative Temperature, Absolute  Salinity, depth)   ln
 _TEOS10 =  T
       EOS-80  : rho=F(Potential    Temperature, Practical Salinity, depth)   ln
 _EOS80  =  F
       S-EOS   : rho=F(Conservative Temperature, Absolute  Salinity, depth)   ln
 _SEOS   =  F
 
    ==>>>   use of TEOS-10 equation of state (cons. temp. and abs. salinity)
 
    ==>>>   model uses Conservative Temperature
            Important: model must be initialized with CT and SA fields
 
    Associated physical constant
       volumic mass of reference           rho0  =    1026.00000000000      
  kg/m^3
       1. / rho0                        r1_rho0  =   9.746588693957114E-004 
  m^3/kg
       ocean specific heat                 rcp   =    3991.86795711963      
  J/Kelvin
       rho0 * rcp                       rho0_rcp =    4095656.52400474     
       1. / ( rho0 * rcp )           r1_rho0_rcp =   2.441610994816036E-007
 
 wad_init : Wetting and drying initialization through namelist read
 ~~~~~~~~
    Namelist namwad
       Logical for Dir. Lim wd option   ln_wd_dl     =  F
       Depth at which wet/drying starts rn_wdmin0    =   0.300000000000000     
       Minimum wet depth on dried cells rn_wdmin1    =   0.200000000000000     
       Tolerance of min wet depth       rn_wdmin2    =   1.000000000000000E-004
       land elevation threshold         rn_wdld      =    2.50000000000000     
       T => baroclinic u,v=0 at dry pts: ln_wd_dl_bc =  F
       use a ramp for wd limiter:       ln_wd_dl_rmp =  F
       cut off depth sbc for wd   rn_wd_sbcdep       =    5.00000000000000     
       fraction to start sbc wgt rn_wd_sbcfra        =   0.999000000000000     
       No configuration file so seting ssh_ref to zero  
 
 dom_init : domain initialization
 ~~~~~~~~
    Domain info
       dimension of model:
              Local domain      Global domain       Data domain 
               jpi     :      13   jpiglo  :     364
               jpj     :      20   jpjglo  :     335
               jpk     :      75   jpkglo  :      75
               jpij    :     144
       mpp local domain info (mpp):
               jpni    :           40    nn_hls  :            2
               jpnj    :           22    nn_hls  :            2
               jpnij   :          880
       lateral boundary of the Global domain:
               cyclic east-west             : T
               cyclic north-south           : F
               North Pole folding           : T
                  type of North pole Folding:F
       Ocean model configuration used:
               cn_cfg = BENCH   nn_cfg =            0
 
 dom_nam : domain initialization through namelist read
 ~~~~~~~ 
 
    Namelist : namdom   ---   space & time domain
       create mesh/mask file                   ln_meshmask =  F
       ocean time step                         rn_Dt       = 
   5400.00000000000     
       single column domain (1x1pt)            ln_c1d      =  F
       shuman averaging (=T)                   ln_shuman   =  F
 
            ===>>>   Runge Kutta 3rd order (RK3) :   rDt = 
   5400.00000000000     
 
    Namelist : namrun   ---   run parameters
       Assimilation cycle              nn_no           =            0
       experiment name for output      cn_exp          = BENCH
       file prefix restart input       cn_ocerst_in    = restart
       restart input directory         cn_ocerst_indir = .
       file prefix restart output      cn_ocerst_out   = restart
       restart output directory        cn_ocerst_outdir= .
       restart logical                 ln_rstart       =  F
       control of time step            nn_rstctl       =            0
       number of the first time step   nn_it000        =            1
       number of the last time step    nn_itend        =          100
       initial calendar date aammjj    nn_date0        =        10101
       initial time of day in hhmm     nn_time0        =            0
       leap year calendar (0/1)        nn_leapy        =            0
       initial state output            nn_istate       =            0
       frequency of restart file       nn_stock        =           -1
       frequency of output file        nn_write        =           -1
       mask land points                ln_mskland      =  F
       additional CF standard metadata ln_cfmeta       =  F
       overwrite an existing file      ln_clobber      =  T
       NetCDF chunksize (bytes)        nn_chunksz      =            0
       READ restart for a single file using XIOS ln_xios_read = F
       Write restart using XIOS        nn_wxios   =            0
 
  ===>>> : W A R N I N G
 
          ===============
 
 nn_stock = -1 --> no restart will be done
 
 
  ===>>> : W A R N I N G
 
          ===============
 
 nn_write = -1 --> no output files will be done
 
 
    ==>>>   The IOIPSL calendar is "noleap", i.e. no leap year
 
    Namelist : namtile   ---   Domain tiling decomposition
       Tiling (T) or not (F)                ln_tile    =  T
       Length of tile in i                  nn_ltile_i =        99999
          ===> Reduced to size            9
       Length of tile in j                  nn_ltile_j =        99999
          ===> Reduced to size           16
 
    Namelist namnc4 - Netcdf4 chunking parameters
       number of chunks in i-dimension             nn_nchunks_i =            4
       number of chunks in j-dimension             nn_nchunks_j =            4
       number of chunks in k-dimension             nn_nchunks_k =           31
       apply netcdf4/hdf5 chunking & compression   ln_nc4zip    =  F
 
 dom_tile : Domain tiling decomposition
 ~~~~~~~~
 The chosen tile sizes           9 x          16 
 result in a single tile for at least one MPI domain- domain tiling will not be 
 used
     i indices =           3 :          11
     j indices =           3 :          18
 
 dom_hgr : define the horizontal mesh from ithe following par_oce parameters 
 ~~~~~~~   
    namcfg : read (=T) or user defined (=F) configuration    ln_read_cfg  =  F
 
           User defined horizontal mesh (usr_def_hgr)
 
 usr_def_hgr : BENCH configuration bassin
 
           Beta-plane with regular grid-spacing
           given by rn_dx and rn_dy
           Coriolis parameter have been set in usr_def_hgr routine
           u- & v-surfaces calculated as e1 e2 product
 
 dom_zgr : vertical coordinate
 ~~~~~~~
 
           User defined vertical mesh (usr_def_zgr)
 
 usr_def_zgr : BENCH configuration (z-coordinate closed flat box ocean)
 ~~~~~~~~~~~
 
     zgr_z   : Reference vertical z-coordinates 
     ~~~~~~~
        BENCH case : uniform vertical grid :
                      with thickness =    67.5675675675676     
 
               Reference 1D z-coordinate depth and scale factors:
          level  gdept_1d  gdepw_1d  e3t_1d   e3w_1d  
             1    33.78     0.00    67.57    67.57
             2   101.35    67.57    67.57    67.57
             3   168.92   135.14    67.57    67.57
             4   236.49   202.70    67.57    67.57
             5   304.05   270.27    67.57    67.57
             6   371.62   337.84    67.57    67.57
             7   439.19   405.41    67.57    67.57
             8   506.76   472.97    67.57    67.57
             9   574.32   540.54    67.57    67.57
            10   641.89   608.11    67.57    67.57
            11   709.46   675.68    67.57    67.57
            12   777.03   743.24    67.57    67.57
            13   844.59   810.81    67.57    67.57
            14   912.16   878.38    67.57    67.57
            15   979.73   945.95    67.57    67.57
            16  1047.30  1013.51    67.57    67.57
            17  1114.86  1081.08    67.57    67.57
            18  1182.43  1148.65    67.57    67.57
            19  1250.00  1216.22    67.57    67.57
            20  1317.57  1283.78    67.57    67.57
            21  1385.14  1351.35    67.57    67.57
            22  1452.70  1418.92    67.57    67.57
            23  1520.27  1486.49    67.57    67.57
            24  1587.84  1554.05    67.57    67.57
            25  1655.41  1621.62    67.57    67.57
            26  1722.97  1689.19    67.57    67.57
            27  1790.54  1756.76    67.57    67.57
            28  1858.11  1824.32    67.57    67.57
            29  1925.68  1891.89    67.57    67.57
            30  1993.24  1959.46    67.57    67.57
            31  2060.81  2027.03    67.57    67.57
            32  2128.38  2094.59    67.57    67.57
            33  2195.95  2162.16    67.57    67.57
            34  2263.51  2229.73    67.57    67.57
            35  2331.08  2297.30    67.57    67.57
            36  2398.65  2364.86    67.57    67.57
            37  2466.22  2432.43    67.57    67.57
            38  2533.78  2500.00    67.57    67.57
            39  2601.35  2567.57    67.57    67.57
            40  2668.92  2635.14    67.57    67.57
            41  2736.49  2702.70    67.57    67.57
            42  2804.05  2770.27    67.57    67.57
            43  2871.62  2837.84    67.57    67.57
            44  2939.19  2905.41    67.57    67.57
            45  3006.76  2972.97    67.57    67.57
            46  3074.32  3040.54    67.57    67.57
            47  3141.89  3108.11    67.57    67.57
            48  3209.46  3175.68    67.57    67.57
            49  3277.03  3243.24    67.57    67.57
            50  3344.59  3310.81    67.57    67.57
            51  3412.16  3378.38    67.57    67.57
            52  3479.73  3445.95    67.57    67.57
            53  3547.30  3513.51    67.57    67.57
            54  3614.86  3581.08    67.57    67.57
            55  3682.43  3648.65    67.57    67.57
            56  3750.00  3716.22    67.57    67.57
            57  3817.57  3783.78    67.57    67.57
            58  3885.14  3851.35    67.57    67.57
            59  3952.70  3918.92    67.57    67.57
            60  4020.27  3986.49    67.57    67.57
            61  4087.84  4054.05    67.57    67.57
            62  4155.41  4121.62    67.57    67.57
            63  4222.97  4189.19    67.57    67.57
            64  4290.54  4256.76    67.57    67.57
            65  4358.11  4324.32    67.57    67.57
            66  4425.68  4391.89    67.57    67.57
            67  4493.24  4459.46    67.57    67.57
            68  4560.81  4527.03    67.57    67.57
            69  4628.38  4594.59    67.57    67.57
            70  4695.95  4662.16    67.57    67.57
            71  4763.51  4729.73    67.57    67.57
            72  4831.08  4797.30    67.57    67.57
            73  4898.65  4864.86    67.57    67.57
            74  4966.22  4932.43    67.57    67.57
            75  5033.78  5000.00    67.57    67.57
 
     zgr_top_bot : defines the top and bottom wet ocean levels.
     ~~~~~~~~~~~
        BENCH case : closed flat box ocean without ocean cavities
 
    Type of vertical coordinate (read in domain_cfg
  file or set in userdef_zgr) :
       z-coordinate - full steps      l_zco    =  T
       z-coordinate - partial steps   l_zps    =  F
       s- or hybrid z-s-coordinate    l_sco    =  F
       ice shelf cavities             ln_isfcav =  F
 
     zgr_top_bot : ocean top and bottom k-index of T-, U-, V- and W-levels 
     ~~~~~~~~~~~
          mbku, mbkv, mbkf computed from mbkt
  MIN val k_top              0  MAX            1
  MIN val k_bot             74  MAX           74
 
 dommsk : ocean mask 
 ~~~~~~
    Namelist namlbc
       lateral momentum boundary cond.    rn_shlat  =   0.000000000000000E+000
       consistency with analytical form   ln_vorlat =  F
 
    ==>>>   ocean lateral  free-slip
 
          User defined shlat for straits
 
 usr_def_fmask : NO alteration of fmask in specific straits 
 ~~~~~~~~~~~~~
 
 rst_read_ssh : ssh initialization
 ~~~~~~~~~~~~ 
 
       initialization at rest
 
 usr_def_istate_ssh : BENCH configuration, analytical definition of initial ssh
 
 dom_qco_init : Variable volume activated
 ~~~~~~~~~~~~
 
 qco_ctl : choice/control of the variable vertical coordinate
 ~~~~~~~~
    Namelist nam_vvl : chose a vertical coordinate
       zstar                      ln_vvl_zstar   =  T
       ztilde                     ln_vvl_ztilde  =  F
       layer                      ln_vvl_layer   =  F
       ztilde as zstar   ln_vvl_ztilde_as_zstar  =  F
       ztilde near the equator    ln_vvl_zstar_at_eqtor  =  F
       !
       thickness diffusion coefficient                      rn_ahe3      = 
  0.000000000000000E+000
       maximum e3t deformation fractional change            rn_zdef_max  = 
  0.900000000000000     
       z-tilde to zstar restoration timescale (days)        rn_rst_e3t   = 
   30.0000000000000     
       z-tilde cutoff frequency of low-pass filter (days)   rn_lf_cutoff = 
   5.00000000000000     
          debug prints flag                                 ln_vvl_dbg   =  F
 
       ==>>>   zstar vertical coordinate is used
 
 dom_ctl : extrema of the masked scale factors
 ~~~~~~~
              glamt mini:       0.50 at i =     1 j=   331
              glamt maxi:     359.50 at i =   360 j=     2
              gphit mini:       1.50 at i =   360 j=     2
              gphit maxi:     330.50 at i =     1 j=   331
                e1t mini:   99999.50 at i =   360 j=   331
                e1t maxi:  100000.50 at i =     1 j=     2
                e2t mini:   99999.25 at i =   360 j=   331
                e2t maxi:  100000.75 at i =     1 j=     2
 
 dom_init :   ==>>>   END of domain initialization
 ~~~~~~~~
 
 
 istate_init : Initialization of the dynamics and tracers
 ~~~~~~~~~~~
 
 dta_tsd_init : Temperature & Salinity data 
 ~~~~~~~~~~~~ 
    Namelist namtsd
       Initialisation of ocean T & S with T &S input data   ln_tsd_init =  F
       damping of ocean T & S toward T &S input data        ln_tsd_dmp  =  F
 
 
    ===>>   T & S data not used
  *** Info used values : 
    date ndastp                                      :        10100
    number of elapsed days since the begining of run :   0.000000000000000E+000
    nn_time0                                         :            0
 
 =======>> 1/2 time step before the start of the run DATE Y/M/D =      0/12/31  nsec_day:   83700  nsec_monday:  429300                     nsec_month: 2675700  nsec_year:31533300
======>> time-step =       1      New day, DATE Y/M/D = 0001/01/01      nday_year = 001
         nsec_year =     2700   nsec_month =    2700   nsec_day =  2700
   nsec_monday =   434700
 
 usr_def_istate : BENCH configuration, analytical definition of initial state
 ~~~~~~~~~~~~~~   
 
 tide_init : tidal components not used (ln_tide = F)
 ~~~~~~~~~ 
 
 sbc_init : surface boundary condition setting
 ~~~~~~~~ 
    Namelist namsbc (partly overwritten with CPP key setting)
       frequency update of sbc (and ice)             nn_fsbc       = 
           2
       Type of air-sea fluxes : 
          user defined formulation                   ln_usr        =  T
          flux         formulation                   ln_flx        =  F
          bulk         formulation                   ln_blk        =  F
          ABL          formulation                   ln_abl        =  F
          Surface wave (forced or coupled)           ln_wave       =  F
       Type of coupling (Ocean/Ice/Atmosphere) : 
          ocean-atmosphere coupled formulation       ln_cpl        =  F
          mixed forced-coupled     formulation       ln_mixcpl     =  F
          OASIS coupling (with atm or sas)           lk_oasis      =  F
          components of your executable              nn_components = 
           0
       Sea-ice : 
          ice management in the sbc (=0/1/2/3)       nn_ice        = 
           0
          ice embedded into ocean                    ln_ice_embd   =  F
       Misc. options of sbc : 
          Light penetration in temperature Eq.       ln_traqsr     =  T
             daily mean to diurnal cycle qsr            ln_dm2dc   =  F
          Sea Surface Restoring on SST and/or SSS    ln_ssr        =  F
          FreshWater Budget control  (=0/1/2)        nn_fwb        = 
           0
          Patm gradient added in ocean & ice Eqs.    ln_apr_dyn    =  F
          runoff / runoff mouths                     ln_rnf        =  F
          nb of iterations if land-sea-mask applied  nn_lsm        = 
           0
 
    ==>>>   NEMO configured as a single executable (i.e. including both OCE and 
 Surface module)
 
    ==>>>   user defined forcing formulation
 
 sbc_ssm_init : sea surface mean fields
 ~~~~~~~~~~~~ 
    default initialisation of ss._m arrays
 
    No surface waves : all wave related logical set to false
 
 bdy_init : open boundaries not used (ln_bdy = F)
 ~~~~~~~~
 
 zdf_phy_init: ocean vertical physics
 ~~~~~~~~~~~~
    Namelist namzdf : set vertical mixing mixing parameters
       adaptive-implicit vertical advection
          Courant number targeted application   ln_zad_Aimp =  F
       vertical closure scheme
          constant vertical mixing coefficient    ln_zdfcst =  F
          Richardson number dependent closure     ln_zdfric =  F
          Turbulent Kinetic Energy closure (TKE)  ln_zdftke =  T
          Generic Length Scale closure (GLS)      ln_zdfgls =  F
          OSMOSIS-OBL closure (OSM)               ln_zdfosm =  F
       convection: 
          convection mass flux (mfc)              ln_zdfmfc =  F
          enhanced vertical diffusion             ln_zdfevd =  T
             applied on momentum (=1/0)             nn_evdm =            0
             vertical coefficient for evd           rn_evd  = 
   100.000000000000     
          non-penetrative convection (npc)        ln_zdfnpc =  F
             npc call  frequency                    nn_npc  =            1
             npc print frequency                    nn_npcp =          365
       double diffusive mixing                    ln_zdfddm =  T
          maximum avs for dd mixing                 rn_avts = 
  1.000000000000000E-004
          heat/salt buoyancy flux ratio             rn_hsbfr= 
   1.60000000000000     
       gravity wave-induced mixing
          surface  wave (Qiao et al 2010)         ln_zdfswm =  F
          internal wave (de Lavergne et al 2017)  ln_zdfiwm =  T
       coefficients : 
          vertical eddy viscosity                 rn_avm0   = 
  1.200000000000000E-004
          vertical eddy diffusivity               rn_avt0   = 
  1.200000000000000E-005
          constant background or profile          nn_avb    =            0
          horizontal variation for avtb           nn_havtb  =            0
 
    ==>>>   convection: use enhanced vertical diffusion scheme
 
    ==>>>   use double diffusive mixing: avs /= avt
 
 zdf_tke_init : tke turbulent closure scheme - initialisation
 ~~~~~~~~~~~~
    Namelist namzdf_tke : set tke mixing parameters
       coef. to compute avt                        rn_ediff  = 
  0.100000000000000     
       Kolmogoroff dissipation coef.               rn_ediss  = 
  0.700000000000000     
       tke surface input coef.                     rn_ebb    = 
   67.8300000000000     
       minimum value of tke                        rn_emin   = 
  1.000000000000000E-006
       surface minimum value of tke                rn_emin0  = 
  1.000000000000000E-004
       prandl number flag                          nn_pdl    =            1
       background shear (>0)                       rn_bshear = 
  9.999999999999999E-021
       mixing length type                          nn_mxl    =            3
          surface mixing length = F(stress) or not    ln_mxl0   =  T
          surface  mixing length minimum value        rn_mxl0   = 
  4.000000000000000E-002
 
  ===>>> : W A R N I N G
 
          ===============
 
 zdf_tke_init: with no ice at all, nn_eice is set to 0
 
       type of scaling under sea-ice               nn_mxlice =            0
    ==>>>   No scaling under sea-ice
       Langmuir cells parametrization              ln_lc     =  T
          coef to compute vertical velocity of LC     rn_lc  = 
  0.150000000000000     
       test param. to add tke induced by wind      nn_etau   =            1
           type of tke penetration profile            nn_htau   =            1
           fraction of TKE that penetrates            rn_efr    = 
  5.000000000000000E-002
       langmuir & surface wave breaking under ice  nn_eice =            0
    ==>>>   no impact of ice cover on langmuir & surface wave breaking
 
    ==>>>   critical Richardson nb with your parameters  ri_cri = 
  0.222222222222222     
 
    ==>>>   Internal wave-driven mixing case:   force   rn_emin = 1.e-10 and rmx
 l_min = 1.e-3
 
    ==>>>   use a surface mixing length = F(stress) :   set rn_mxl0 = rmxl_min
 
    ==>>>   start from rest: set en to the background value
 
 zdf_iwm_init : internal wave-driven mixing
 ~~~~~~~~~~~~
    Namelist namzdf_iwm : set wave-driven mixing parameters
       Variable (T) or constant (F) mixing efficiency            =  F
       Differential internal wave-driven mixing (T) or not (F)   =  T
 
    Force the background value applied to avm & avt in TKE to be everywhere 
 the viscous molecular value & a very small diffusive value, resp.
 
 zdfiwm_init : iwm input file
 ~~~~~~~~~~~
    fld_fill : fill data structure with information from namelist namiwm
    ~~~~~~~~
       list of files and frequency (>0: in hours ; <0 in months)
       root filename: NOT USED   variable name: power_bot
          frequency:   -12.0000000000000         time interp:  F    climatology:
   T
          weights:    pairing:    data type: yearly     land/sea mask:
       root filename: NOT USED   variable name: power_cri
          frequency:   -12.0000000000000         time interp:  F    climatology:
   T
          weights:    pairing:    data type: yearly     land/sea mask:
       root filename: NOT USED   variable name: power_nsq
          frequency:   -12.0000000000000         time interp:  F    climatology:
   T
          weights:    pairing:    data type: yearly     land/sea mask:
       root filename: NOT USED   variable name: power_sho
          frequency:   -12.0000000000000         time interp:  F    climatology:
   T
          weights:    pairing:    data type: yearly     land/sea mask:
       root filename: NOT USED   variable name: scale_bot
          frequency:   -12.0000000000000         time interp:  F    climatology:
   T
          weights:    pairing:    data type: yearly     land/sea mask:
       root filename: NOT USED   variable name: scale_cri
          frequency:   -12.0000000000000         time interp:  F    climatology:
   T
          weights:    pairing:    data type: yearly     land/sea mask:
       Dissipation above abyssal hills:          1.187999955026090E-007 TW
       Dissipation along topographic slopes:     1.187999955026090E-007 TW
       Dissipation scaling with N^2:             1.187999955026090E-002 TW
       Dissipation due to shoaling:              1.187999955026090E-007 TW
 
 zdf_drg_init : top and/or bottom drag setting
 ~~~~~~~~~~~~
    Namelist namdrg : top/bottom friction choices
       free-slip       : Cd = 0                  ln_drg_OFF  =  F
       linear  drag    : Cd = Cd0                ln_lin      =  F
       non-linear  drag: Cd = Cd0_nl |U|         ln_non_lin  =  T
       logarithmic drag: Cd = vkarmn/log(z/z0)   ln_loglayer =  F
       implicit friction                         ln_drgimp   =  T
       implicit ice-ocean drag                   ln_drgice_imp  = F
 
    Namelist namdrg_bot : set BOTTOM friction parameters
       drag coefficient                        rn_Cd0   = 
  1.000000000000000E-003
       characteristic velocity (linear case)   rn_Uc0   = 
  0.400000000000000       m/s
       non-linear drag maximum                 rn_Cdmax = 
  0.100000000000000     
       background kinetic energy  (n-l case)   rn_ke0   = 
  2.500000000000000E-003
       bottom roughness           (n-l case)   rn_z0    = 
  3.000000000000000E-003
       set a regional boost of Cd0             ln_boost =  F
          associated boost factor              rn_boost = 
   50.0000000000000     
 
    ==>>>   quadratic BOTTOM friction (propotional to module of the velocity)
    with    a drag coefficient Cd0 =   1.000000000000000E-003 , and
            a background velocity module of (rn_ke0)^1/2 = 
  5.000000000000000E-002 m/s)
 
 ldf_tra_init : lateral tracer diffusion
 ~~~~~~~~~~~~ 
    Namelist : namtra_ldf --- lateral mixing parameters (type, direction, coeffi
 cients)
       type :
          no explicit diffusion                   ln_traldf_OFF   =  F
          laplacian operator                      ln_traldf_lap   =  T
          bilaplacian operator                    ln_traldf_blp   =  F
       direction of action :
          iso-level                               ln_traldf_lev   =  F
          horizontal (geopotential)               ln_traldf_hor   =  F
          iso-neutral Madec operator              ln_traldf_iso   =  T
          iso-neutral triad operator              ln_traldf_triad =  F
             use the Method of Stab. Correction   ln_traldf_msc   =  F
             maximum isoppycnal slope             rn_slpmax       = 
  1.000000000000000E-002
             pure lateral mixing in ML            ln_triad_iso    =  F
             switching triad or not               rn_sw_triad     = 
   1.00000000000000     
             lateral mixing on bottom             ln_botmix_triad =  F
       coefficients :
          type of time-space variation            nn_aht_ijk_t    =           20
             lateral diffusive velocity (if cst)  rn_Ud           = 
  1.000000000000000E-002  m/s
             lateral diffusive length   (if cst)  rn_Ld           = 
   200000.000000000       m
 
    ==>>>   Rotated laplacian operator (standard)
 
    ==>>>   eddy diffusivity = F( e1, e2 ) or F( e1^3, e2^3 ) (lap or blp case)
            using a fixed diffusive velocity =   1.000000000000000E-002 
  m/s   and   Ld = Max(e1,e2)
            maximum reachable coefficient (at the Equator) = 
   555.994617242729       m2/s  for e1=1)
 
    ldf_c2d :   aht = Ufac * max(e1,e2)   with Ufac =   5.000000000000000E-003 
  m/s
 
 ldf_eiv_init : eddy induced velocity parametrization
 ~~~~~~~~~~~~ 
    Namelist namtra_eiv : 
       Eddy Induced Velocity (eiv) param.         ln_ldfeiv     =  T
       coefficients :
          type of time-space variation            nn_aei_ijk_t  =           20
          lateral diffusive velocity (if cst)     rn_Ue         = 
  2.000000000000000E-002  m/s
          lateral diffusive length   (if cst)     rn_Le         = 
   200000.000000000       m
 
    ==>>>   use eddy induced velocity parametrization
 
    ==>>>   eddy induced velocity coef. = F( e1, e2 )
            using a fixed diffusive velocity =   2.000000000000000E-002 
  m/s   and   Le = Max(e1,e2)
            maximum reachable coefficient (at the Equator) = 
   1111.98923448546       m2/s   for e1=1)
 
    ldf_c2d :   aht = Ufac * max(e1,e2)   with Ufac =   1.000000000000000E-002 
  m/s
 
 ldf_dyn : lateral momentum physics
 ~~~~~~~
    Namelist namdyn_ldf : set lateral mixing parameters
       type :
          no explicit diffusion                ln_dynldf_OFF =  F
          type of operator (div-rot or sym)    nn_dynldf_typ =            0
          laplacian operator                   ln_dynldf_lap =  T
          bilaplacian operator                 ln_dynldf_blp =  F
       direction of action :
          iso-level                            ln_dynldf_lev =  F
          horizontal (geopotential)            ln_dynldf_hor =  T
          iso-neutral                          ln_dynldf_iso =  F
       coefficients :
          type of time-space variation         nn_ahm_ijk_t  =           30
          lateral viscous velocity  (if cst)      rn_Uv      = 
  0.100000000000000       m/s
          lateral viscous length    (if cst)      rn_Lv      = 
   10000.0000000000       m
          background viscosity (iso-lap case)     rn_ahm_b   = 
  0.000000000000000E+000  m2/s
       Smagorinsky settings (nn_ahm_ijk_t  = 32) :
          Smagorinsky coefficient              rn_csmc       = 
   3.50000000000000     
          factor multiplier for eddy visc.
             lower limit (default 1.0)         rn_minfac     = 
   1.00000000000000     
             upper limit (default 1.0)         rn_maxfac     = 
   1.00000000000000     
    ==>>>   use div-rot   operator 
 
    ==>>>   iso-level laplacian operator
 
    ==>>>   eddy viscosity = F( latitude, longitude, depth )
            using a fixed viscous velocity =   0.100000000000000      
  m/s   and   Ld = Max(e1,e2)
            maximum reachable coefficient (at the Equator) = 
   5559.94617242729       m2/s  for e1=1)
 
    ldf_c2d :   aht = Ufac * max(e1,e2)   with Ufac =   5.000000000000000E-002 
  m/s
 
    ldf_c1d : set a given profile to eddy mixing coefficients
 
 tra_qsr_init : penetration of the surface solar radiation
 ~~~~~~~~~~~~
    Namelist namtra_qsr : set the parameter of penetration
       RGB (Red-Green-Blue) light penetration           ln_qsr_rgb =  T
       2 band               light penetration           ln_qsr_2bd =  F
       UV-R-G-B-IR          light penetration           ln_qsr_5bd =  F
       bio-model            light penetration           ln_qsr_bio =  F
       RGB &   5 bands: Chl data (=1) or cst value (=0) nn_chldta  = 
           0
       RGB &   5 bands: Chl vertical profile (=0,1,2)   nn_chlprfl = 
           1
       RGB & 2/5 bands: fraction of light (rn_si1)      rn_abs     = 
  0.580000000000000     
       RGB & 2/5 bands: shortess depth of extinction    rn_si0     = 
  0.350000000000000     
       2 bands: longest depth of extinction             rn_si1     = 
   23.0000000000000     
       5 bands: fraction of PAR                         rn_par     = 
  0.470000000000000     
 
    ==>>>   Infrared light attenuation
               level of infrared extinction =            1  ref depth = 
   67.5675675675676       m
 
 
    trc_oce_tab : Initialisation of the optical look-up table
    ~~~~~~~~~~~ 
       RGB longest depth of extinction    r_si2 =    61.8046971569839     
    ==>>>   RGB:  light attenuation with a constant Chlorophyll = 
  5.000000000000000E-002
                  level of Red   extinction =            2  ref depth = 
   135.135135135135       m
                  level of Green extinction =            5  ref depth = 
   337.837837837838       m
                  level of Blue  extinction =           16  ref depth = 
   1081.08108108108       m
 
 
 tra_bbc : Bottom Boundary Condition (bbc), apply a Geothermal heating
 ~~~~~~~   
    Namelist nambbc : set bbc parameters
       Apply a geothermal heating at ocean bottom   ln_trabbc     =  T
       type of geothermal flux                      nn_geoflx     =            1
       Constant geothermal flux value               rn_geoflx_cst = 
  8.640000000000000E-002
 
    ==>>>   constant heat flux  =     8.640000000000000E-002
 
 tra_bbl_init : bottom boundary layer initialisation
 ~~~~~~~~~~~~
        Namelist nambbl : set bbl parameters
           bottom boundary layer flag          ln_trabbl  =  T
           diffusive bbl (=1)   or not (=0)    nn_bbl_ldf =            1
           advective bbl (=1/2) or not (=0)    nn_bbl_adv =            0
           diffusive bbl coefficient           rn_ahtbbl  = 
   1000.00000000000       m2/s
           advective bbl coefficient           rn_gambbl  = 
   10.0000000000000       s
 
 tra_dmp_init : T and S newtonian relaxation
 ~~~~~~~~~~~~
    Namelist namtra_dmp : set relaxation parameters
       Apply relaxation   or not       ln_tradmp   =  F
          mixed layer damping option      nn_zdmp  =            0
          Damping file name               cn_resto = 
 resto.nc                                                                       
                                                                                
                                           
 
 
 tra_adv_init : choice/control of the tracer advection scheme
 ~~~~~~~~~~~~
    Namelist namtra_adv : chose a advection scheme for tracers
       No advection on T & S                     ln_traadv_OFF =  F
       centered scheme                           ln_traadv_cen =  T
             horizontal 2nd/4th order               nn_cen_h   =            2
             vertical   2nd/4th order               nn_cen_v   =            2
       Flux Corrected Transport scheme           ln_traadv_fct =  F
             horizontal 2nd/4th order               nn_fct_h   =            2
             vertical   2nd/4th order               nn_fct_v   =            2
             implicit   optimized(1)/accurate(2)    nn_fct_imp =            1
       MUSCL scheme                              ln_traadv_mus =  F
             + upstream scheme near river mouths    ln_mus_ups =  F
       UBS scheme                                ln_traadv_ubs =  F
             vertical   2nd/4th order               nn_ubs_v   =            2
       QUICKEST scheme                           ln_traadv_qck =  F
 
    ==>>>   CEN      scheme is used. Horizontal order  :            2 
  Vertical   order  :            2
 
 tra_mle_init : mixed layer eddy (MLE) advection acting on tracers
 ~~~~~~~~~~~~~
    Namelist namtra_mle : mixed layer eddy advection applied on tracers
       use mixed layer eddy (MLE, i.e. Fox-Kemper param) (T/F)      ln_mle      
  =  T
          MLE type: =0 standard Fox-Kemper ; =1 new formulation        nn_mle   
  =            1
          magnitude of the MLE (typical value: 0.06 to 0.08)           rn_ce    
  =   6.000000000000000E-002
          scale of ML front (ML radius of deformation) (rn_mle=0)      rn_lf    
  =    5000.00000000000      m
          maximum time scale of MLE                    (rn_mle=0)      rn_time  
  =    172800.000000000      s
          reference latitude (degrees) of MLE coef.    (rn_mle=1)      rn_lat   
  =    20.0000000000000      deg
          space interp. of MLD at u-(v-)pts (0=min,1=averaged,2=max)   nn_mld_uv
  =            0
          =1 no MLE in case of convection ; =0 always MLE              nn_conv  
  =            0
          Density difference used to define ML for FK              rn_rho_c_mle 
  =   1.000000000000000E-002
 
    ==>>>   Mixed Layer Eddy induced transport added to tracer advection
               New formulation
 
       ML buoyancy criteria =   9.558138401559454E-005  m/s2 
       associated ML density criteria defined in zdfmxl = 
  1.000000000000000E-002 kg/m3
 
 tra_ldf_init : lateral tracer diffusive operator
 ~~~~~~~~~~~~
    Namelist namtra_ldf: already read in ldftra module
       see ldf_tra_init report for lateral mixing parameters
 
    ==>>>   Rotated laplacian operator (standard)
 
 dyn_adv_init : choice/control of the momentum advection scheme
 ~~~~~~~~~~~~
    Namelist namdyn_adv : chose a advection formulation & scheme for momentum
       linear dynamics : no momentum advection          ln_dynadv_OFF  =  F
       Vector form: 2nd order centered scheme           ln_dynadv_vec  =  T
          with Hollingsworth scheme (=1) or not (=0)       nn_dynkeg   = 
           1
       flux form: 2nd order centred scheme              ln_dynadv_cen2 =  F
                  3rd order UBS scheme                  ln_dynadv_up3  =  F
 
    ==>>>   vector form : keg + zad + vor is used
               with Hollingsworth keg scheme
 
 dyn_vor_init : vorticity term : read namelist and control the consistency
 ~~~~~~~~~~~~
    Namelist namdyn_vor : choice of the vorticity term scheme
       enstrophy conserving scheme                    ln_dynvor_ens =  F
       f-point energy conserving scheme               ln_dynvor_ene =  F
       t-point energy conserving scheme               ln_dynvor_enT =  F
       enstrophy and energy conserving scheme         ln_dynvor_een =  T
          e3f = averaging /4 (=0) or /sum(tmask) (=1)    nn_e3f_typ = 
           0
       mixed enstrophy/energy conserving scheme       ln_dynvor_mix =  F
       masked (=T) or unmasked(=F) vorticity          ln_dynvor_msk =  F
 
       change fmask value in the angles (T)           ln_vorlat =  F
 
    ==>>>   vector form dynamics : total vorticity = Coriolis + relative vortici
 ty
 
    ==>>>   energy and enstrophy conserving scheme (EEN)
 
 dyn_ldf_init : Choice of the lateral diffusive operator on dynamics
 ~~~~~~~~~~~~
    Namelist namdyn_ldf: already read in ldfdyn module
       see ldf_dyn_init report for lateral mixing parameters
 
    ==>>>   iso-level laplacian operator
 
 dyn_hpg_init : hydrostatic pressure gradient initialisation
 ~~~~~~~~~~~~
    Namelist namdyn_hpg : choice of hpg scheme
       z-coord. - full steps                             ln_hpg_zco    =  F
       s-coord. (standard jacobian formulation)          ln_hpg_sco    =  T
       s-coord. (standard jacobian formulation) for isf  ln_hpg_isf    =  F
       s-coord. (Density Jacobian: Cubic polynomial)     ln_hpg_djc    =  F
       s-coord. (Pressure Jacobian: Cubic polynomial)    ln_hpg_prj    =  F
 
    ==>>>   s-coord. (standard jacobian formulation)
 
 
 dyn_spg_init : choice of the surface pressure gradient scheme
 ~~~~~~~~~~~~
    Namelist : namdyn_spg                    
       Explicit free surface                  ln_dynspg_exp =  F
       Free surface with time splitting       ln_dynspg_ts  =  T
 
    ==>>>   free surface with time splitting scheme
 
 dyn_spg_ts_init : split-explicit free surface
 ~~~~~~~~~~~~~~~
      Barotropic time filter => nn_bt_flt =            1
         Boxcar: width = nn_e
 
      Barotropic time steps => in seconds         =    83.0769230769231     
                               in iterations nn_e =           65
         set      (ln_bt_auto=F) with the namelist parameter nn_e 
 
 icb_nam : iceberg initialization through namberg namelist read
 ~~~~~~~~ 
 
    ==>>>   No icebergs used
 
 ldf_slp_init : direction of lateral mixing
 ~~~~~~~~~~~~
    ==>>>   iso operator (Madec)
 
 sto_par_init : NO use of stochastic parameterization
 ~~~~~~~~~~~~
  
 diadct_init: compute transports through sections 
 ~~~~~~~~~~~~~~~~~~~~~
        Calculate transport thru sections: ln_diadct =  F
        Frequency of computation:          nn_dct    =           15
        Frequency of write:                nn_dctwri =           15
        Debug section number:          112
 
 trd_init : Momentum/Tracers trends
 ~~~~~~~~
    Namelist namtrd : set trends parameters
       global domain averaged dyn & tra trends   ln_glo_trd  =  F
       U & V trends: 3D output                   ln_dyn_trd  =  F
       U & V trends: Mixed Layer averaged        ln_dyn_mxl  =  F
       T & S trends: 3D output                   ln_tra_trd  =  F
       T & S trends: Mixed Layer averaged        ln_tra_mxl  =  F
       Kinetic   Energy trends                   ln_KE_trd   =  F
       Potential Energy trends                   ln_PE_trd   =  F
       Barotropic vorticity trends               ln_vor_trd  =  F
       frequency of trends diagnostics (glo)     nn_trd      =          365
 
 dia_obs_init : NO Observation diagnostic used
 ~~~~~~~~~~~~
 
 dia_detide_init : weight computation for daily detided model diagnostics
 ~~~~~~~~~~~~~~~
                   l_diadetide =  F

AAAAAAAA


AAAAAAAA

 
 dia_ptr_init : poleward transport and msf initialization
 ~~~~~~~~~~~~
       Poleward heat & salt transport (T) or not (F)      l_diaptr  =  F
 
 dia_hsb_init : heat and salt budgets diagnostics
 ~~~~~~~~~~~~ 
 
 dia_25h_init : Output 25 hour mean diagnostics
 ~~~~~~~~~~~~
       Switch for 25h diagnostics (T) or not (F)  l_dia25h  =  F
 
 sbc_ssm : mean fields initialised to instantaneous values
 ~~~~~~~   
  usr_sbc : BENCH case: surface forcing
  ~~~~~~~~~~~   vtau = taum = wndm = qns = qsr = emp = sfx = 0
           nit000-1 surface forcing fields set to nit000
 
 zdf_mxl : mixed layer depth
 ~~~~~~~ 
 
 zdf_evd : Enhanced Vertical Diffusion (evd)
 ~~~~~~~ 
 
 
 stp_2D : barotropic field in single first 
 ~~~~~~
 
 dyn:hpg_sco : hydrostatic pressure gradient trend
 ~~~~~~~~~~~   s-coordinate case, OCE original scheme used
 
 dynldf_lev_lap : laplacian operator momentum 
 ~~~~~~~~~~~~~~
 
 dyn:vor_een : vorticity term: energy and enstrophy conserving scheme
 ~~~~~~~~~~~
 
 wzv : now vertical velocity 
 ~~~~~ 
 
 div_hor : thickness weighted horizontal divergence 
 ~~~~~~~~~~~
 
 dyn_keg : kinetic energy gradient trend, scheme number=           1
 ~~~~~~~
 
 dyn_zad : 2nd order vertical advection scheme
 
 dyn_spg_ts : surface pressure gradient trend
 ~~~~~~~~~~   free surface with time splitting
 
 
 stp_stg : Runge Kutta 3rd order at stage            1
 ~~~~~~~~~~~
 
 wzv : now vertical velocity 
 ~~~~~ 
 
 div_hor : thickness weighted horizontal divergence 
 ~~~~~~~~~~~
 
 tra_adv_cen : centered advection scheme on TRA order h/v =           2 /
           2
 ~~~~~~~~~~~~ 
 
 tra_sbc : TRAcer Surface Boundary Condition
 ~~~~~~~~~~~ 
 
 stp_stg : Runge Kutta 3rd order at stage            2
 ~~~~~~~~~~~
 
 wzv : now vertical velocity 
 ~~~~~ 
 
 div_hor : thickness weighted horizontal divergence 
 ~~~~~~~~~~~
 
 dyn:hpg_sco : hydrostatic pressure gradient trend
 ~~~~~~~~~~~   s-coordinate case, OCE original scheme used
 
 dyn:vor_een : vorticity term: energy and enstrophy conserving scheme
 ~~~~~~~~~~~
 
 dyn_keg : kinetic energy gradient trend, scheme number=           1
 ~~~~~~~
 
 dyn_zad : 2nd order vertical advection scheme
 
 wzv : now vertical velocity 
 ~~~~~ 
 
 div_hor : thickness weighted horizontal divergence 
 ~~~~~~~~~~~
 
 tra_adv_cen : centered advection scheme on TRA order h/v =           2 /
           2
 ~~~~~~~~~~~~ 
 
 tra_sbc : TRAcer Surface Boundary Condition
 ~~~~~~~~~~~ 
 
 stp_stg : Runge Kutta 3rd order at stage            3
 ~~~~~~~~~~~
 
 wzv : now vertical velocity 
 ~~~~~ 
 
 div_hor : thickness weighted horizontal divergence 
 ~~~~~~~~~~~
 
 dyn:hpg_sco : hydrostatic pressure gradient trend
 ~~~~~~~~~~~   s-coordinate case, OCE original scheme used
 
 dyn:vor_een : vorticity term: energy and enstrophy conserving scheme
 ~~~~~~~~~~~
 
 dyn_keg : kinetic energy gradient trend, scheme number=           1
 ~~~~~~~
 
 dyn_zad : 2nd order vertical advection scheme
 
 dynldf_lev_lap : laplacian operator momentum 
 ~~~~~~~~~~~~~~
 
 dyn_zdf_imp : vertical momentum diffusion implicit operator
 ~~~~~~~~~~~ 
 
 ldf_eiv_trp : eddy induced advection 
 ~~~~~~~~~~~   add to velocity fields the eiv component
 
 wzv : now vertical velocity 
 ~~~~~ 
 
 div_hor : thickness weighted horizontal divergence 
 ~~~~~~~~~~~
 
 trabbl:bbl : Compute bbl velocities and diffusive coefficients
 ~~~~~~~~~~
 
 tra_adv_cen : centered advection scheme on TRA order h/v =           2 /
           2
 ~~~~~~~~~~~~ 
 
 tra_sbc : TRAcer Surface Boundary Condition
 ~~~~~~~~~~~ 
 
 tra_qsr : penetration of the surface solar radiation
 ~~~~~~~
 
 traldf_iso_lap   : iso-neutral standard laplacian diffusive operator
 ~~~~~~~~~~~~~~~~ 
 
 tra_zdf : implicit vertical mixing on T & S
 ~~~~~~~ 
 
 stp_ctl : time-stepping control
 ~~~~~~~
      file   : time.step open ok
      unit   =           19
      status = REPLACE
      form   = FORMATTED
      access = SEQUENTIAL
 
======>> time-step =      17      New day, DATE Y/M/D = 0001/01/02      nday_year = 002
         nsec_year =    89100   nsec_month =   89100   nsec_day =  2700
   nsec_monday =   521100
======>> time-step =      33      New day, DATE Y/M/D = 0001/01/03      nday_year = 003
         nsec_year =   175500   nsec_month =  175500   nsec_day =  2700
   nsec_monday =   607500
======>> time-step =      49      New day, DATE Y/M/D = 0001/01/04      nday_year = 004
         nsec_year =   261900   nsec_month =  261900   nsec_day =  2700
   nsec_monday =    89100
======>> time-step =      65      New day, DATE Y/M/D = 0001/01/05      nday_year = 005
         nsec_year =   348300   nsec_month =  348300   nsec_day =  2700
   nsec_monday =   175500
======>> time-step =      81      New day, DATE Y/M/D = 0001/01/06      nday_year = 006
         nsec_year =   434700   nsec_month =  434700   nsec_day =  2700
   nsec_monday =   261900
======>> time-step =      97      New day, DATE Y/M/D = 0001/01/07      nday_year = 007
         nsec_year =   521100   nsec_month =  521100   nsec_day =  2700
   nsec_monday =   348300

AAAAAAAA

